/*--------------------------------*- C++ -*----------------------------------*\
| =========                 |                                                 |
| \\      /  F ield         | OpenFOAM: The Open Source CFD Toolbox           |
|  \\    /   O peration     | Version:  v2012                                 |
|   \\  /    A nd           | Website:  www.openfoam.com                      |
|    \\/     M anipulation  |                                                 |
\*---------------------------------------------------------------------------*/
FoamFile
{
    version     2.0;
    format      ascii;
    class       dictionary;
    location    "system";
    object      controlDict;
}
// * * * * * * * * * * * * * * * * * * * * * * * * * * * * * * * * * * * * * //

application     leiaLevelSetFoam;

startFrom       startTime;

startTime       0;

stopAt          endTime;

endTime         6.283185307179586;

// Maximal velocity in the rotation around an axis for a unit-cube domain is sqrt(0.5^2 + 0.5^2)
// A global CFL is set based on this maximal global velocity 
deltaTinitial   #calc "$endTime / floor($endTime / ( 0.1 * 0.021 / 0.7071067811865476))"; 

writeInterval   #calc "floor(0.1 * ($endTime / $deltaTinitial))";

deltaT          #calc "$endTime / (10 * $writeInterval)"; 

writeControl    timeStep;

purgeWrite      0;

writeFormat     ascii;

writePrecision  12;

writeCompression off;

timeFormat      general;

timePrecision   6;

runTimeModifiable true;

#include "fobjects";
// ************************************************************************* //
