/*--------------------------------*- C++ -*----------------------------------*\
| =========                 |                                                 |
| \\      /  F ield         | OpenFOAM: The Open Source CFD Toolbox           |
|  \\    /   O peration     | Version:  v2012                                 |
|   \\  /    A nd           | Website:  www.openfoam.com                      |
|    \\/     M anipulation  |                                                 |
\*---------------------------------------------------------------------------*/
FoamFile
{
    version     2.0;
    format      ascii;
    class       dictionary;
    location    "system";
    object      controlDict;
}
// * * * * * * * * * * * * * * * * * * * * * * * * * * * * * * * * * * * * * //

application     leiaLevelSetFoam;

startFrom       startTime;

startTime       0;

stopAt          endTime;

endTime         3; 

Umax            1.0;

CFL              0.5;

// safty factor which is necessary to ensure maxCFL for some reason
CFLsafty        0.5;

// dummy float value. Will be replaced by Allrun
deltaX          1.0;

deltaT          #eval "$CFL * $CFLsafty * $deltaX / $Umax";

writeControl    runTime;

writeInterval   0.2;

purgeWrite      0;

writeFormat     ascii;

writePrecision  12;

writeCompression off;

timeFormat      general;

timePrecision   6;

runTimeModifiable true;

#include "fobjects";
// ************************************************************************* //
