/*--------------------------------*- C++ -*----------------------------------*\
| =========                 |                                                |
| \\      /  F ield         | cfMesh: A library for mesh generation          |
|  \\    /   O peration     |                                                |
|   \\  /    A nd           | Author: Franjo Juretic                         |
|    \\/     M anipulation  | E-mail: franjo.juretic@c-fields.com            |
\*---------------------------------------------------------------------------*/
FoamFile
{
    version     2;
    format      ascii;
    class       dictionary;
    location    "system";
    object      meshDict;
}

// * * * * * * * * * * * * * * * * * * * * * * * * * * * * * * * * * * * * * //
 maxCellSize     0.021; // 270kCells
//maxCellSize     0.015; // 700kCells
// maxCellSize     0.008; // 1.7MCells
surfaceFile     "box-translation-edges.stl";

renameBoundary
{
    defaultName wall;
    defaultType wall;
}

// ************************************************************************* //
